*SPEF "ieee 1481-1999"
*DESIGN "user_proj_final"
*DATE "11:11:11 Fri 11 11, 1111"
*VENDOR "OpenRCX"
*PROGRAM "Parallel Extraction"
*VERSION "1.0"
*DESIGN_FLOW "NAME_SCOPE LOCAL" "PIN_CAP NONE"
*DIVIDER /
*DELIMITER :
*BUS_DELIMITER []
*T_UNIT 1 NS
*C_UNIT 1 PF
*R_UNIT 1 OHM
*L_UNIT 1 HENRY

*NAME_MAP
*1 i_DATA_OUT_FINAL[0]
*2 i_DATA_OUT_FINAL[1]
*3 i_DATA_OUT_FINAL[2]
*4 i_DATA_OUT_FINAL[3]
*5 i_DATA_OUT_FINAL[4]
*6 i_DATA_OUT_FINAL[5]
*7 i_DATA_OUT_FINAL[6]
*8 i_DATA_OUT_FINAL[7]
*9 i_WEIGHT_OUT_FINAL[0]
*10 i_WEIGHT_OUT_FINAL[1]
*11 i_WEIGHT_OUT_FINAL[2]
*12 i_WEIGHT_OUT_FINAL[3]
*13 i_WEIGHT_OUT_FINAL[4]
*14 i_WEIGHT_OUT_FINAL[5]
*15 i_WEIGHT_OUT_FINAL[6]
*16 i_WEIGHT_OUT_FINAL[7]
*17 io_in[0]
*18 io_in[10]
*19 io_in[11]
*20 io_in[12]
*21 io_in[13]
*22 io_in[14]
*23 io_in[15]
*24 io_in[16]
*25 io_in[17]
*26 io_in[18]
*27 io_in[19]
*28 io_in[1]
*29 io_in[20]
*30 io_in[21]
*31 io_in[22]
*32 io_in[23]
*33 io_in[24]
*34 io_in[25]
*35 io_in[26]
*36 io_in[27]
*37 io_in[28]
*38 io_in[29]
*39 io_in[2]
*40 io_in[30]
*41 io_in[31]
*42 io_in[32]
*43 io_in[33]
*44 io_in[34]
*45 io_in[35]
*46 io_in[36]
*47 io_in[37]
*48 io_in[3]
*49 io_in[4]
*50 io_in[5]
*51 io_in[6]
*52 io_in[7]
*53 io_in[8]
*54 io_in[9]
*55 io_oeb[0]
*56 io_oeb[10]
*57 io_oeb[11]
*58 io_oeb[12]
*59 io_oeb[13]
*60 io_oeb[14]
*61 io_oeb[15]
*62 io_oeb[16]
*63 io_oeb[17]
*64 io_oeb[18]
*65 io_oeb[19]
*66 io_oeb[1]
*67 io_oeb[20]
*68 io_oeb[21]
*69 io_oeb[22]
*70 io_oeb[23]
*71 io_oeb[24]
*72 io_oeb[25]
*73 io_oeb[26]
*74 io_oeb[27]
*75 io_oeb[28]
*76 io_oeb[29]
*77 io_oeb[2]
*78 io_oeb[30]
*79 io_oeb[31]
*80 io_oeb[32]
*81 io_oeb[33]
*82 io_oeb[34]
*83 io_oeb[35]
*84 io_oeb[36]
*85 io_oeb[37]
*86 io_oeb[3]
*87 io_oeb[4]
*88 io_oeb[5]
*89 io_oeb[6]
*90 io_oeb[7]
*91 io_oeb[8]
*92 io_oeb[9]
*93 net372
*94 io_out[10]
*95 io_out[11]
*96 net380
*97 net381
*98 net382
*99 net383
*100 net384
*101 net385
*102 net386
*103 net387
*104 net373
*105 net388
*106 net389
*107 net390
*108 net391
*109 net392
*110 net393
*111 net394
*112 net395
*113 net396
*114 net397
*115 net374
*116 net398
*117 net399
*118 net400
*119 net401
*120 net402
*121 net403
*122 net404
*123 net405
*124 net375
*125 net376
*126 net377
*127 net378
*128 net379
*129 io_out[8]
*130 io_out[9]
*131 irq[0]
*132 irq[1]
*133 net406
*134 la_data_in[0]
*135 la_data_in[100]
*136 la_data_in[101]
*137 la_data_in[102]
*138 la_data_in[103]
*139 la_data_in[104]
*140 la_data_in[105]
*141 la_data_in[106]
*142 la_data_in[107]
*143 la_data_in[108]
*144 la_data_in[109]
*145 la_data_in[10]
*146 la_data_in[110]
*147 la_data_in[111]
*148 la_data_in[112]
*149 la_data_in[113]
*150 la_data_in[114]
*151 la_data_in[115]
*152 la_data_in[116]
*153 la_data_in[117]
*154 la_data_in[118]
*155 la_data_in[119]
*156 la_data_in[11]
*157 la_data_in[120]
*158 la_data_in[121]
*159 la_data_in[122]
*160 la_data_in[123]
*161 la_data_in[124]
*162 la_data_in[125]
*163 la_data_in[126]
*164 la_data_in[127]
*165 la_data_in[12]
*166 la_data_in[13]
*167 la_data_in[14]
*168 la_data_in[15]
*169 la_data_in[16]
*170 la_data_in[17]
*171 la_data_in[18]
*172 la_data_in[19]
*173 la_data_in[1]
*174 la_data_in[20]
*175 la_data_in[21]
*176 la_data_in[22]
*177 la_data_in[23]
*178 la_data_in[24]
*179 la_data_in[25]
*180 la_data_in[26]
*181 la_data_in[27]
*182 la_data_in[28]
*183 la_data_in[29]
*184 la_data_in[2]
*185 la_data_in[30]
*186 la_data_in[31]
*187 la_data_in[32]
*188 la_data_in[33]
*189 la_data_in[34]
*190 la_data_in[35]
*191 la_data_in[36]
*192 la_data_in[37]
*193 la_data_in[38]
*194 la_data_in[39]
*195 la_data_in[3]
*196 la_data_in[40]
*197 la_data_in[41]
*198 la_data_in[42]
*199 la_data_in[43]
*200 la_data_in[44]
*201 la_data_in[45]
*202 la_data_in[46]
*203 la_data_in[47]
*204 la_data_in[48]
*205 la_data_in[49]
*206 la_data_in[4]
*207 la_data_in[50]
*208 la_data_in[51]
*209 la_data_in[52]
*210 la_data_in[53]
*211 la_data_in[54]
*212 la_data_in[55]
*213 la_data_in[56]
*214 la_data_in[57]
*215 la_data_in[58]
*216 la_data_in[59]
*217 la_data_in[5]
*218 la_data_in[60]
*219 la_data_in[61]
*220 la_data_in[62]
*221 la_data_in[63]
*222 la_data_in[64]
*223 la_data_in[65]
*224 la_data_in[66]
*225 la_data_in[67]
*226 la_data_in[68]
*227 la_data_in[69]
*228 la_data_in[6]
*229 la_data_in[70]
*230 la_data_in[71]
*231 la_data_in[72]
*232 la_data_in[73]
*233 la_data_in[74]
*234 la_data_in[75]
*235 la_data_in[76]
*236 la_data_in[77]
*237 la_data_in[78]
*238 la_data_in[79]
*239 la_data_in[7]
*240 la_data_in[80]
*241 la_data_in[81]
*242 la_data_in[82]
*243 la_data_in[83]
*244 la_data_in[84]
*245 la_data_in[85]
*246 la_data_in[86]
*247 la_data_in[87]
*248 la_data_in[88]
*249 la_data_in[89]
*250 la_data_in[8]
*251 la_data_in[90]
*252 la_data_in[91]
*253 la_data_in[92]
*254 la_data_in[93]
*255 la_data_in[94]
*256 la_data_in[95]
*257 la_data_in[96]
*258 la_data_in[97]
*259 la_data_in[98]
*260 la_data_in[99]
*261 la_data_in[9]
*262 la_data_out[0]
*263 net437
*264 net438
*265 net439
*266 net440
*267 net441
*268 net442
*269 net443
*270 net444
*271 net445
*272 net446
*273 la_data_out[10]
*274 net447
*275 net448
*276 net449
*277 net450
*278 net451
*279 net452
*280 net453
*281 net454
*282 net455
*283 net456
*284 la_data_out[11]
*285 net457
*286 net458
*287 net459
*288 net460
*289 net461
*290 net462
*291 net463
*292 net464
*293 la_data_out[12]
*294 la_data_out[13]
*295 la_data_out[14]
*296 la_data_out[15]
*297 la_data_out[16]
*298 la_data_out[17]
*299 la_data_out[18]
*300 la_data_out[19]
*301 la_data_out[1]
*302 la_data_out[20]
*303 la_data_out[21]
*304 la_data_out[22]
*305 la_data_out[23]
*306 la_data_out[24]
*307 la_data_out[25]
*308 la_data_out[26]
*309 la_data_out[27]
*310 la_data_out[28]
*311 la_data_out[29]
*312 la_data_out[2]
*313 la_data_out[30]
*314 la_data_out[31]
*315 la_data_out[32]
*316 la_data_out[33]
*317 la_data_out[34]
*318 la_data_out[35]
*319 la_data_out[36]
*320 la_data_out[37]
*321 la_data_out[38]
*322 la_data_out[39]
*323 la_data_out[3]
*324 la_data_out[40]
*325 la_data_out[41]
*326 la_data_out[42]
*327 la_data_out[43]
*328 la_data_out[44]
*329 la_data_out[45]
*330 la_data_out[46]
*331 la_data_out[47]
*332 la_data_out[48]
*333 la_data_out[49]
*334 la_data_out[4]
*335 la_data_out[50]
*336 la_data_out[51]
*337 la_data_out[52]
*338 la_data_out[53]
*339 la_data_out[54]
*340 la_data_out[55]
*341 la_data_out[56]
*342 la_data_out[57]
*343 la_data_out[58]
*344 la_data_out[59]
*345 la_data_out[5]
*346 la_data_out[60]
*347 la_data_out[61]
*348 la_data_out[62]
*349 la_data_out[63]
*350 la_data_out[64]
*351 la_data_out[65]
*352 la_data_out[66]
*353 la_data_out[67]
*354 la_data_out[68]
*355 la_data_out[69]
*356 la_data_out[6]
*357 net407
*358 net408
*359 net409
*360 net410
*361 net411
*362 net412
*363 net413
*364 net414
*365 net415
*366 net416
*367 la_data_out[7]
*368 net417
*369 net418
*370 net419
*371 net420
*372 net421
*373 net422
*374 net423
*375 net424
*376 net425
*377 net426
*378 la_data_out[8]
*379 net427
*380 net428
*381 net429
*382 net430
*383 net431
*384 net432
*385 net433
*386 net434
*387 net435
*388 net436
*389 la_data_out[9]
*390 la_oenb[0]
*391 la_oenb[100]
*392 la_oenb[101]
*393 la_oenb[102]
*394 la_oenb[103]
*395 la_oenb[104]
*396 la_oenb[105]
*397 la_oenb[106]
*398 la_oenb[107]
*399 la_oenb[108]
*400 la_oenb[109]
*401 la_oenb[10]
*402 la_oenb[110]
*403 la_oenb[111]
*404 la_oenb[112]
*405 la_oenb[113]
*406 la_oenb[114]
*407 la_oenb[115]
*408 la_oenb[116]
*409 la_oenb[117]
*410 la_oenb[118]
*411 la_oenb[119]
*412 la_oenb[11]
*413 la_oenb[120]
*414 la_oenb[121]
*415 la_oenb[122]
*416 la_oenb[123]
*417 la_oenb[124]
*418 la_oenb[125]
*419 la_oenb[126]
*420 la_oenb[127]
*421 la_oenb[12]
*422 la_oenb[13]
*423 la_oenb[14]
*424 la_oenb[15]
*425 la_oenb[16]
*426 la_oenb[17]
*427 la_oenb[18]
*428 la_oenb[19]
*429 la_oenb[1]
*430 la_oenb[20]
*431 la_oenb[21]
*432 la_oenb[22]
*433 la_oenb[23]
*434 la_oenb[24]
*435 la_oenb[25]
*436 la_oenb[26]
*437 la_oenb[27]
*438 la_oenb[28]
*439 la_oenb[29]
*440 la_oenb[2]
*441 la_oenb[30]
*442 la_oenb[31]
*443 la_oenb[32]
*444 la_oenb[33]
*445 la_oenb[34]
*446 la_oenb[35]
*447 la_oenb[36]
*448 la_oenb[37]
*449 la_oenb[38]
*450 la_oenb[39]
*451 la_oenb[3]
*452 la_oenb[40]
*453 la_oenb[41]
*454 la_oenb[42]
*455 la_oenb[43]
*456 la_oenb[44]
*457 la_oenb[45]
*458 la_oenb[46]
*459 la_oenb[47]
*460 la_oenb[48]
*461 la_oenb[49]
*462 la_oenb[4]
*463 la_oenb[50]
*464 la_oenb[51]
*465 la_oenb[52]
*466 la_oenb[53]
*467 la_oenb[54]
*468 la_oenb[55]
*469 la_oenb[56]
*470 la_oenb[57]
*471 la_oenb[58]
*472 la_oenb[59]
*473 la_oenb[5]
*474 la_oenb[60]
*475 la_oenb[61]
*476 la_oenb[62]
*477 la_oenb[63]
*478 la_oenb[64]
*479 la_oenb[65]
*480 la_oenb[66]
*481 la_oenb[67]
*482 la_oenb[68]
*483 la_oenb[69]
*484 la_oenb[6]
*485 la_oenb[70]
*486 la_oenb[71]
*487 la_oenb[72]
*488 la_oenb[73]
*489 la_oenb[74]
*490 la_oenb[75]
*491 la_oenb[76]
*492 la_oenb[77]
*493 la_oenb[78]
*494 la_oenb[79]
*495 la_oenb[7]
*496 la_oenb[80]
*497 la_oenb[81]
*498 la_oenb[82]
*499 la_oenb[83]
*500 la_oenb[84]
*501 la_oenb[85]
*502 la_oenb[86]
*503 la_oenb[87]
*504 la_oenb[88]
*505 la_oenb[89]
*506 la_oenb[8]
*507 la_oenb[90]
*508 la_oenb[91]
*509 la_oenb[92]
*510 la_oenb[93]
*511 la_oenb[94]
*512 la_oenb[95]
*513 la_oenb[96]
*514 la_oenb[97]
*515 la_oenb[98]
*516 la_oenb[99]
*517 la_oenb[9]
*518 o_DATA_ADDRESS_FINAL[0]
*519 o_DATA_ADDRESS_FINAL[1]
*520 o_DATA_ADDRESS_FINAL[2]
*521 o_DATA_ADDRESS_FINAL[3]
*522 o_DATA_ADDRESS_FINAL[4]
*523 o_DATA_ADDRESS_FINAL[5]
*524 o_DATA_ADDRESS_FINAL[6]
*525 o_DATA_ADDRESS_FINAL[7]
*526 o_DATA_ADDRESS_FINAL[8]
*527 o_DATA_ADDRESS_FINAL[9]
*528 o_DATA_INPUT_FINAL[0]
*529 o_DATA_INPUT_FINAL[1]
*530 o_DATA_INPUT_FINAL[2]
*531 o_DATA_INPUT_FINAL[3]
*532 o_DATA_INPUT_FINAL[4]
*533 o_DATA_INPUT_FINAL[5]
*534 o_DATA_INPUT_FINAL[6]
*535 o_DATA_INPUT_FINAL[7]
*536 net465
*537 net466
*538 o_WEIGHT_ADDRESS_FINAL[0]
*539 o_WEIGHT_ADDRESS_FINAL[1]
*540 o_WEIGHT_ADDRESS_FINAL[2]
*541 o_WEIGHT_ADDRESS_FINAL[3]
*542 o_WEIGHT_ADDRESS_FINAL[4]
*543 o_WEIGHT_ADDRESS_FINAL[5]
*544 o_WEIGHT_ADDRESS_FINAL[6]
*545 o_WEIGHT_ADDRESS_FINAL[7]
*546 o_WEIGHT_ADDRESS_FINAL[8]
*547 o_WEIGHT_ADDRESS_FINAL[9]
*548 o_WEIGHT_INPUT_FINAL[0]
*549 o_WEIGHT_INPUT_FINAL[1]
*550 o_WEIGHT_INPUT_FINAL[2]
*551 o_WEIGHT_INPUT_FINAL[3]
*552 o_WEIGHT_INPUT_FINAL[4]
*553 o_WEIGHT_INPUT_FINAL[5]
*554 o_WEIGHT_INPUT_FINAL[6]
*555 o_WEIGHT_INPUT_FINAL[7]
*556 o_WE_DATA_MEMORY_FINAL
*557 o_WE_WEIGHT_MEMORY_FINAL
*560 wb_clk_i
*561 wb_rst_i
*562 wbs_ack_o
*563 wbs_adr_i[0]
*564 wbs_adr_i[10]
*565 wbs_adr_i[11]
*566 wbs_adr_i[12]
*567 wbs_adr_i[13]
*568 wbs_adr_i[14]
*569 wbs_adr_i[15]
*570 wbs_adr_i[16]
*571 wbs_adr_i[17]
*572 wbs_adr_i[18]
*573 wbs_adr_i[19]
*574 wbs_adr_i[1]
*575 wbs_adr_i[20]
*576 wbs_adr_i[21]
*577 wbs_adr_i[22]
*578 wbs_adr_i[23]
*579 wbs_adr_i[24]
*580 wbs_adr_i[25]
*581 wbs_adr_i[26]
*582 wbs_adr_i[27]
*583 wbs_adr_i[28]
*584 wbs_adr_i[29]
*585 wbs_adr_i[2]
*586 wbs_adr_i[30]
*587 wbs_adr_i[31]
*588 wbs_adr_i[3]
*589 wbs_adr_i[4]
*590 wbs_adr_i[5]
*591 wbs_adr_i[6]
*592 wbs_adr_i[7]
*593 wbs_adr_i[8]
*594 wbs_adr_i[9]
*595 wbs_cyc_i
*596 wbs_dat_i[0]
*597 wbs_dat_i[10]
*598 wbs_dat_i[11]
*599 wbs_dat_i[12]
*600 wbs_dat_i[13]
*601 wbs_dat_i[14]
*602 wbs_dat_i[15]
*603 wbs_dat_i[16]
*604 wbs_dat_i[17]
*605 wbs_dat_i[18]
*606 wbs_dat_i[19]
*607 wbs_dat_i[1]
*608 wbs_dat_i[20]
*609 wbs_dat_i[21]
*610 wbs_dat_i[22]
*611 wbs_dat_i[23]
*612 wbs_dat_i[24]
*613 wbs_dat_i[25]
*614 wbs_dat_i[26]
*615 wbs_dat_i[27]
*616 wbs_dat_i[28]
*617 wbs_dat_i[29]
*618 wbs_dat_i[2]
*619 wbs_dat_i[30]
*620 wbs_dat_i[31]
*621 wbs_dat_i[3]
*622 wbs_dat_i[4]
*623 wbs_dat_i[5]
*624 wbs_dat_i[6]
*625 wbs_dat_i[7]
*626 wbs_dat_i[8]
*627 wbs_dat_i[9]
*628 wbs_dat_o[0]
*629 wbs_dat_o[10]
*630 wbs_dat_o[11]
*631 wbs_dat_o[12]
*632 wbs_dat_o[13]
*633 wbs_dat_o[14]
*634 wbs_dat_o[15]
*635 wbs_dat_o[16]
*636 wbs_dat_o[17]
*637 wbs_dat_o[18]
*638 wbs_dat_o[19]
*639 wbs_dat_o[1]
*640 wbs_dat_o[20]
*641 wbs_dat_o[21]
*642 wbs_dat_o[22]
*643 wbs_dat_o[23]
*644 wbs_dat_o[24]
*645 wbs_dat_o[25]
*646 wbs_dat_o[26]
*647 wbs_dat_o[27]
*648 wbs_dat_o[28]
*649 wbs_dat_o[29]
*650 wbs_dat_o[2]
*651 wbs_dat_o[30]
*652 wbs_dat_o[31]
*653 wbs_dat_o[3]
*654 wbs_dat_o[4]
*655 wbs_dat_o[5]
*656 wbs_dat_o[6]
*657 wbs_dat_o[7]
*658 wbs_dat_o[8]
*659 wbs_dat_o[9]
*660 wbs_sel_i[0]
*661 wbs_sel_i[1]
*662 wbs_sel_i[2]
*663 wbs_sel_i[3]
*664 wbs_stb_i
*665 wbs_we_i
*666 _0000_
*667 _0001_
*668 _0002_
*669 _0003_
*670 _0004_
*671 _0005_
*672 _0006_
*673 _0007_
*674 _0008_
*675 _0009_
*676 _0010_
*677 _0011_
*678 _0012_
*679 _0013_
*680 _0014_
*681 _0015_
*682 _0016_
*683 _0017_
*684 _0018_
*685 _0019_
*686 _0020_
*687 _0021_
*688 _0022_
*689 _0023_
*690 _0024_
*691 _0025_
*692 _0026_
*693 _0027_
*694 _0028_
*695 _0029_
*696 _0030_
*697 _0031_
*698 _0032_
*699 _0033_
*700 _0034_
*701 _0035_
*702 _0036_
*703 _0037_
*704 _0038_
*705 _0039_
*706 _0040_
*707 _0041_
*708 _0042_
*709 _0043_
*710 _0044_
*711 _0045_
*712 _0046_
*713 _0047_
*714 _0048_
*715 _0049_
*716 _0050_
*717 _0051_
*718 _0052_
*719 _0053_
*720 _0054_
*721 _0055_
*722 _0056_
*723 _0057_
*724 _0058_
*725 _0059_
*726 _0060_
*727 _0061_
*728 _0062_
*729 _0063_
*730 _0064_
*731 _0065_
*732 _0066_
*733 _0067_
*734 _0068_
*735 _0069_
*736 _0070_
*737 _0071_
*738 _0072_
*739 _0073_
*740 _0074_
*741 _0075_
*742 _0076_
*743 _0077_
*744 _0078_
*745 _0079_
*746 _0080_
*747 _0081_
*748 _0082_
*749 _0083_
*750 _0084_
*751 _0085_
*752 _0086_
*753 _0087_
*754 _0088_
*755 _0089_
*756 _0090_
*757 _0091_
*758 _0092_
*759 _0093_
*760 _0094_
*761 _0095_
*762 _0096_
*763 _0097_
*764 _0098_
*765 _0099_
*766 _0100_
*767 _0101_
*768 _0102_
*769 _0103_
*770 _0104_
*771 _0105_
*772 _0106_
*773 _0107_
*774 _0108_
*775 _0109_
*776 _0110_
*777 _0111_
*778 _0112_
*779 _0113_
*780 _0114_
*781 _0115_
*782 _0116_
*783 _0117_
*784 _0118_
*785 _0119_
*786 _0120_
*787 _0121_
*788 _0122_
*789 _0123_
*790 _0124_
*791 _0125_
*792 _0126_
*793 _0127_
*794 _0128_
*795 _0129_
*796 _0130_
*797 _0131_
*798 _0132_
*799 _0133_
*800 _0134_
*801 _0135_
*802 _0136_
*803 _0137_
*804 _0138_
*805 _0139_
*806 _0140_
*807 _0141_
*808 _0142_
*809 _0143_
*810 _0144_
*811 _0145_
*812 _0146_
*813 _0147_
*814 _0148_
*815 _0149_
*816 _0150_
*817 _0151_
*818 _0152_
*819 _0153_
*820 _0154_
*821 _0155_
*822 _0156_
*823 _0157_
*824 _0158_
*825 _0159_
*826 _0160_
*827 _0161_
*828 _0162_
*829 _0163_
*830 _0164_
*831 _0165_
*832 _0166_
*833 _0167_
*834 _0168_
*835 _0169_
*836 _0170_
*837 _0171_
*838 _0172_
*839 _0173_
*840 _0174_
*841 _0175_
*842 _0176_
*843 _0177_
*844 _0178_
*845 _0179_
*846 _0180_
*847 _0181_
*848 _0182_
*849 _0183_
*850 _0184_
*851 _0185_
*852 _0186_
*853 _0187_
*854 _0188_
*855 _0189_
*856 _0190_
*857 _0191_
*858 _0192_
*859 _0193_
*860 _0194_
*861 _0195_
*862 _0196_
*863 _0197_
*864 _0198_
*865 _0199_
*866 _0200_
*867 _0201_
*868 _0202_
*869 _0203_
*870 _0204_
*871 _0205_
*872 _0206_
*873 _0207_
*874 _0208_
*875 _0209_
*876 _0210_
*877 _0211_
*878 _0212_
*879 _0213_
*880 _0214_
*881 _0215_
*882 _0216_
*883 _0217_
*884 _0218_
*885 _0219_
*886 _0220_
*887 _0221_
*888 _0222_
*889 _0223_
*890 _0224_
*891 _0225_
*892 _0226_
*893 _0227_
*894 _0228_
*895 _0229_
*896 _0230_
*897 _0231_
*898 _0232_
*899 _0233_
*900 _0234_
*901 _0235_
*902 _0236_
*903 _0237_
*904 _0238_
*905 _0239_
*906 _0240_
*907 _0241_
*908 _0242_
*909 _0243_
*910 _0244_
*911 _0245_
*912 _0246_
*913 _0247_
*914 _0248_
*915 _0249_
*916 _0250_
*917 _0251_
*918 _0252_
*919 _0253_
*920 _0254_
*921 _0255_
*922 _0256_
*923 _0257_
*924 _0258_
*925 _0259_
*926 _0260_
*927 _0261_
*928 _0262_
*929 _0263_
*930 _0264_
*931 _0265_
*932 _0266_
*933 _0267_
*934 _0268_
*935 _0269_
*936 _0270_
*937 _0271_
*938 _0272_
*939 _0273_
*940 _0274_
*941 _0275_
*942 _0276_
*943 _0277_
*944 _0278_
*945 _0279_
*946 _0280_
*947 _0281_
*948 _0282_
*949 _0283_
*950 _0284_
*951 _0285_
*952 _0286_
*953 _0287_
*954 _0288_
*955 _0289_
*956 _0290_
*957 _0291_
*958 _0292_
*959 _0293_
*960 _0294_
*961 _0295_
*962 _0296_
*963 _0297_
*964 _0298_
*965 _0299_
*966 _0300_
*967 _0301_
*968 _0302_
*969 _0303_
*970 _0304_
*971 _0305_
*972 _0306_
*973 _0307_
*974 _0308_
*975 _0309_
*976 _0310_
*977 _0311_
*978 _0312_
*979 _0313_
*980 _0314_
*981 _0315_
*982 _0316_
*983 _0317_
*984 _0318_
*985 _0319_
*986 _0320_
*987 _0321_
*988 _0322_
*989 _0323_
*990 _0324_
*991 _0325_
*992 _0326_
*993 _0327_
*994 _0328_
*995 _0329_
*996 _0330_
*997 _0331_
*998 _0332_
*999 _0333_
*1000 _0334_
*1001 _0335_
*1002 _0336_
*1003 _0337_
*1004 _0338_
*1005 _0339_
*1006 _0340_
*1007 _0341_
*1008 _0342_
*1009 _0343_
*1010 _0344_
*1011 _0345_
*1012 _0346_
*1013 _0347_
*1014 _0348_
*1015 _0349_
*1016 _0350_
*1017 _0351_
*1018 _0352_
*1019 _0353_
*1020 _0354_
*1021 _0355_
*1022 _0356_
*1023 _0357_
*1024 _0358_
*1025 _0359_
*1026 _0360_
*1027 _0361_
*1028 _0362_
*1029 _0363_
*1030 _0364_
*1031 _0365_
*1032 _0366_
*1033 _0367_
*1034 _0368_
*1035 _0369_
*1036 _0370_
*1037 _0371_
*1038 _0372_
*1039 _0373_
*1040 _0374_
*1041 _0375_
*1042 _0376_
*1043 _0377_
*1044 _0378_
*1045 _0379_
*1046 _0380_
*1047 _0381_
*1048 _0382_
*1049 _0383_
*1050 _0384_
*1051 _0385_
*1052 _0386_
*1053 _0387_
*1054 _0388_
*1055 _0389_
*1056 _0390_
*1057 _0391_
*1058 _0392_
*1059 _0393_
*1060 _0394_
*1061 _0395_
*1062 _0396_
*1063 _0397_
*1064 _0398_
*1065 _0399_
*1066 _0400_
*1067 _0401_
*1068 _0402_
*1069 _0403_
*1070 _0404_
*1071 _0405_
*1072 _0406_
*1073 _0407_
*1074 _0408_
*1075 _0409_
*1076 _0410_
*1077 _0411_
*1078 _0412_
*1079 _0413_
*1080 _0414_
*1081 _0415_
*1082 _0416_
*1083 _0417_
*1084 _0418_
*1085 _0419_
*1086 _0420_
*1087 _0421_
*1088 _0422_
*1089 _0423_
*1090 _0424_
*1091 _0425_
*1092 _0426_
*1093 _0427_
*1094 _0428_
*1095 _0429_
*1096 _0430_
*1097 _0431_
*1098 _0432_
*1099 _0433_
*1100 _0434_
*1101 _0435_
*1102 _0436_
*1103 _0437_
*1104 _0438_
*1105 _0439_
*1106 _0440_
*1107 _0441_
*1108 _0442_
*1109 _0443_
*1110 _0444_
*1111 _0445_
*1112 _0446_
*1113 _0447_
*1114 _0448_
*1115 _0449_
*1116 _0450_
*1117 _0451_
*1118 _0452_
*1119 _0453_
*1120 _0454_
*1121 _0455_
*1122 _0456_
*1123 _0457_
*1124 _0458_
*1125 _0459_
*1126 _0460_
*1127 _0461_
*1128 _0462_
*1129 _0463_
*1130 _0464_
*1131 _0465_
*1132 _0466_
*1133 _0467_
*1134 _0468_
*1135 _0469_
*1136 _0470_
*1137 _0471_
*1138 _0472_
*1139 _0473_
*1140 _0474_
*1141 _0475_
*1142 _0476_
*1143 _0477_
*1144 _0478_
*1145 _0479_
*1146 _0480_
*1147 _0481_
*1148 _0482_
*1149 _0483_
*1150 _0484_
*1151 _0485_
*1152 _0486_
*1153 _0487_
*1154 _0488_
*1155 _0489_
*1156 _0490_
*1157 _0491_
*1158 _0492_
*1159 _0493_
*1160 _0494_
*1161 _0495_
*1162 _0496_
*1163 _0497_
*1164 _0498_
*1165 _0499_
*1166 _0500_
*1167 _0501_
*1168 _0502_
*1169 _0503_
*1170 _0504_
*1171 _0505_
*1172 _0506_
*1173 _0507_
*1174 _0508_
*1175 _0509_
*1176 _0510_
*1177 _0511_
*1178 _0512_
*1179 _0513_
*1180 _0514_
*1181 _0515_
*1182 _0516_
*1183 _0517_
*1184 _0518_
*1185 _0519_
*1186 _0520_
*1187 _0521_
*1188 _0522_
*1189 _0523_
*1190 _0524_
*1191 _0525_
*1192 _0526_
*1193 _0527_
*1194 _0528_
*1195 _0529_
*1196 _0530_
*1197 _0531_
*1198 _0532_
*1199 _0533_
*1200 _0534_
*1201 _0535_
*1202 _0536_
*1203 _0537_
*1204 _0538_
*1205 _0539_
*1206 _0540_
*1207 _0541_
*1208 _0542_
*1209 _0543_
*1210 _0544_
*1211 _0545_
*1212 _0546_
*1213 _0547_
*1214 _0548_
*1215 _0549_
*1216 _0550_
*1217 _0551_
*1218 _0552_
*1219 _0553_
*1220 _0554_
*1221 _0555_
*1222 _0556_
*1223 _0557_
*1224 _0558_
*1225 _0559_
*1226 _0560_
*1227 _0561_
*1228 _0562_
*1229 _0563_
*1230 _0564_
*1231 _0565_
*1232 _0566_
*1233 _0567_
*1234 _0568_
*1235 _0569_
*1236 _0570_
*1237 _0571_
*1238 _0572_
*1239 _0573_
*1240 _0574_
*1241 _0575_
*1242 _0576_
*1243 _0577_
*1244 _0578_
*1245 _0579_
*1246 _0580_
*1247 _0581_
*1248 _0582_
*1249 _0583_
*1250 _0584_
*1251 _0585_
*1252 _0586_
*1253 _0587_
*1254 _0588_
*1255 _0589_
*1256 _0590_
*1257 _0591_
*1258 _0592_
*1259 _0593_
*1260 _0594_
*1261 _0595_
*1262 _0596_
*1263 _0597_
*1264 _0598_
*1265 _0599_
*1266 _0600_
*1267 _0601_
*1268 _0602_
*1269 _0603_
*1270 _0604_
*1271 _0605_
*1272 _0606_
*1273 _0607_
*1274 _0608_
*1275 _0609_
*1276 _0610_
*1277 _0611_
*1278 _0612_
*1279 _0613_
*1280 _0614_
*1281 _0615_
*1282 _0616_
*1283 _0617_
*1284 _0618_
*1285 _0619_
*1286 _0620_
*1287 _0621_
*1288 _0622_
*1289 _0623_
*1290 _0624_
*1291 _0625_
*1292 _0626_
*1293 _0627_
*1294 _0628_
*1295 _0629_
*1296 _0630_
*1297 _0631_
*1298 _0632_
*1299 _0633_
*1300 _0634_
*1301 _0635_
*1302 _0636_
*1303 _0637_
*1304 _0638_
*1305 _0639_
*1306 _0640_
*1307 _0641_
*1308 _0642_
*1309 _0643_
*1310 _0644_
*1311 _0645_
*1312 _0646_
*1313 _0647_
*1314 _0648_
*1315 _0649_
*1316 _0650_
*1317 _0651_
*1318 _0652_
*1319 _0653_
*1320 _0654_
*1321 _0655_
*1322 _0656_
*1323 _0657_
*1324 _0658_
*1325 _0659_
*1326 _0660_
*1327 _0661_
*1328 _0662_
*1329 _0663_
*1330 _0664_
*1331 _0665_
*1332 _0666_
*1333 _0667_
*1334 _0668_
*1335 _0669_
*1336 _0670_
*1337 _0671_
*1338 _0672_
*1339 _0673_
*1340 _0674_
*1341 _0675_
*1342 _0676_
*1343 _0677_
*1344 _0678_
*1345 _0679_
*1346 _0680_
*1347 _0681_
*1348 _0682_
*1349 _0683_
*1350 _0684_
*1351 _0685_
*1352 _0686_
*1353 _0687_
*1354 _0688_
*1355 _0689_
*1356 _0690_
*1357 _0691_
*1358 _0692_
*1359 _0693_
*1360 _0694_
*1361 _0695_
*1362 _0696_
*1363 _0697_
*1364 _0698_
*1365 _0699_
*1366 _0700_
*1367 _0701_
*1368 _0702_
*1369 _0703_
*1370 _0704_
*1371 _0705_
*1372 _0706_
*1373 _0707_
*1374 _0708_
*1375 _0709_
*1376 _0710_
*1377 _0711_
*1378 _0712_
*1379 _0713_
*1380 _0714_
*1381 _0715_
*1382 _0716_
*1383 _0717_
*1384 _0718_
*1385 _0719_
*1386 _0720_
*1387 _0721_
*1388 _0722_
*1389 _0723_
*1390 _0724_
*1391 _0725_
*1392 _0726_
*1393 _0727_
*1394 _0728_
*1395 _0729_
*1396 _0730_
*1397 _0731_
*1398 _0732_
*1399 _0733_
*1400 _0734_
*1401 _0735_
*1402 _0736_
*1403 _0737_
*1404 _0738_
*1405 _0739_
*1406 _0740_
*1407 _0741_
*1408 _0742_
*1409 _0743_
*1410 _0744_
*1411 _0745_
*1412 _0746_
*1413 _0747_
*1414 _0748_
*1415 _0749_
*1416 _0750_
*1417 _0751_
*1418 _0752_
*1419 _0753_
*1420 _0754_
*1421 _0755_
*1422 _0756_
*1423 _0757_
*1424 _0758_
*1425 _0759_
*1426 _0760_
*1427 _0761_
*1428 _0762_
*1429 _0763_
*1430 _0764_
*1431 _0765_
*1432 _0766_
*1433 _0767_
*1434 _0768_
*1435 _0769_
*1436 _0770_
*1437 _0771_
*1438 _0772_
*1439 _0773_
*1440 _0774_
*1441 _0775_
*1442 _0776_
*1443 _0777_
*1444 _0778_
*1445 _0779_
*1446 _0780_
*1447 _0781_
*1448 _0782_
*1449 _0783_
*1450 _0784_
*1451 _0785_
*1452 _0786_
*1453 _0787_
*1454 _0788_
*1455 _0789_
*1456 _0790_
*1457 _0791_
*1458 _0792_
*1459 _0793_
*1460 _0794_
*1461 _0795_
*1462 _0796_
*1463 _0797_
*1464 _0798_
*1465 _0799_
*1466 _0800_
*1467 _0801_
*1468 _0802_
*1469 _0803_
*1470 _0804_
*1471 _0805_
*1472 _0806_
*1473 _0807_
*1474 _0808_
*1475 _0809_
*1476 _0810_
*1477 _0811_
*1478 _0812_
*1479 _0813_
*1480 _0814_
*1481 _0815_
*1482 _0816_
*1483 _0817_
*1484 _0818_
*1485 _0819_
*1486 _0820_
*1487 _0821_
*1488 _0822_
*1489 _0823_
*1490 _0824_
*1491 _0825_
*1492 _0826_
*1493 _0827_
*1494 _0828_
*1495 _0829_
*1496 _0830_
*1497 _0831_
*1498 _0832_
*1499 _0833_
*1500 _0834_
*1501 _0835_
*1502 _0836_
*1503 _0837_
*1504 _0838_
*1505 _0839_
*1506 _0840_
*1507 _0841_
*1508 _0842_
*1509 _0843_
*1510 _0844_
*1511 _0845_
*1512 _0846_
*1513 _0847_
*1514 _0848_
*1515 _0849_
*1516 _0850_
*1517 _0851_
*1518 _0852_
*1519 _0853_
*1520 _0854_
*1521 _0855_
*1522 _0856_
*1523 _0857_
*1524 _0858_
*1525 _0859_
*1526 _0860_
*1527 _0861_
*1528 _0862_
*1529 _0863_
*1530 _0864_
*1531 _0865_
*1532 _0866_
*1533 _0867_
*1534 _0868_
*1535 _0869_
*1536 _0870_
*1537 _0871_
*1538 _0872_
*1539 _0873_
*1540 _0874_
*1541 _0875_
*1542 _0876_
*1543 _0877_
*1544 _0878_
*1545 _0879_
*1546 _0880_
*1547 _0881_
*1548 _0882_
*1549 _0883_
*1550 _0884_
*1551 _0885_
*1552 _0886_
*1553 _0887_
*1554 _0888_
*1555 _0889_
*1556 _0890_
*1557 _0891_
*1558 _0892_
*1559 _0893_
*1560 _0894_
*1561 _0895_
*1562 _0896_
*1563 _0897_
*1564 _0898_
*1565 _0899_
*1566 _0900_
*1567 _0901_
*1568 _0902_
*1569 _0903_
*1570 _0904_
*1571 _0905_
*1572 _0906_
*1573 _0907_
*1574 _0908_
*1575 _0909_
*1576 _0910_
*1577 _0911_
*1578 _0912_
*1579 _0913_
*1580 _0914_
*1581 _0915_
*1582 _0916_
*1583 _0917_
*1584 _0918_
*1585 _0919_
*1586 _0920_
*1587 _0921_
*1588 _0922_
*1589 _0923_
*1590 _0924_
*1591 _0925_
*1592 _0926_
*1593 _0927_
*1594 _0928_
*1595 _0929_
*1596 _0930_
*1597 _0931_
*1598 _0932_
*1599 _0933_
*1600 _0934_
*1601 _0935_
*1602 _0936_
*1603 _0937_
*1604 _0938_
*1605 _0939_
*1606 _0940_
*1607 _0941_
*1608 _0942_
*1609 _0943_
*1610 _0944_
*1611 _0945_
*1612 _0946_
*1613 _0947_
*1614 _0948_
*1615 _0949_
*1616 _0950_
*1617 _0951_
*1618 _0952_
*1619 _0953_
*1620 _0954_
*1621 _0955_
*1622 _0956_
*1623 _0957_
*1624 _0958_
*1625 _0959_
*1626 _0960_
*1627 _0961_
*1628 _0962_
*1629 _0963_
*1630 _0964_
*1631 _0965_
*1632 _0966_
*1633 _0967_
*1634 _0968_
*1635 _0969_
*1636 _0970_
*1637 _0971_
*1638 _0972_
*1639 _0973_
*1640 _0974_
*1641 _0975_
*1642 _0976_
*1643 _0977_
*1644 _0978_
*1645 _0979_
*1646 _0980_
*1647 _0981_
*1648 _0982_
*1649 _0983_
*1650 _0984_
*1651 _0985_
*1652 _0986_
*1653 _0987_
*1654 _0988_
*1655 _0989_
*1656 _0990_
*1657 _0991_
*1658 _0992_
*1659 _0993_
*1660 _0994_
*1661 _0995_
*1662 _0996_
*1663 _0997_
*1664 _0998_
*1665 _0999_
*1666 _1000_
*1667 _1001_
*1668 _1002_
*1669 _1003_
*1670 _1004_
*1671 _1005_
*1672 _1006_
*1673 _1007_
*1674 _1008_
*1675 _1009_
*1676 _1010_
*1677 _1011_
*1678 _1012_
*1679 _1013_
*1680 _1014_
*1681 _1015_
*1682 _1016_
*1683 _1017_
*1684 _1018_
*1685 _1019_
*1686 _1020_
*1687 _1021_
*1688 _1022_
*1689 _1023_
*1690 _1024_
*1691 _1025_
*1692 _1026_
*1693 _1027_
*1694 _1028_
*1695 _1029_
*1696 _1030_
*1697 _1031_
*1698 _1032_
*1699 _1033_
*1700 _1034_
*1701 _1035_
*1702 _1036_
*1703 _1037_
*1704 _1038_
*1705 _1039_
*1706 _1040_
*1707 _1041_
*1708 _1042_
*1709 _1043_
*1710 _1044_
*1711 _1045_
*1712 _1046_
*1713 _1047_
*1714 _1048_
*1715 _1049_
*1716 _1050_
*1717 _1051_
*1718 _1052_
*1719 _1053_
*1720 _1054_
*1721 _1055_
*1722 _1056_
*1723 _1057_
*1724 _1058_
*1725 _1059_
*1726 _1060_
*1727 _1061_
*1728 _1062_
*1729 _1063_
*1730 _1064_
*1731 _1065_
*1732 _1066_
*1733 _1067_
*1734 _1068_
*1735 _1069_
*1736 _1070_
*1737 _1071_
*1738 _1072_
*1739 _1073_
*1740 _1074_
*1741 _1075_
*1742 _1076_
*1743 _1077_
*1744 _1078_
*1745 _1079_
*1746 _1080_
*1747 _1081_
*1748 _1082_
*1749 _1083_
*1750 _1084_
*1751 _1085_
*1752 clknet_0_wb_clk_i
*1753 clknet_1_0__leaf_wb_clk_i
*1754 clknet_1_1__leaf_wb_clk_i
*1755 g_backdoor_spi\.g_addr_shift_in\.o_Q\[0\]
*1756 g_backdoor_spi\.g_addr_shift_in\.o_Q\[1\]
*1757 g_backdoor_spi\.g_addr_shift_in\.o_Q\[2\]
*1758 g_backdoor_spi\.g_addr_shift_in\.o_Q\[3\]
*1759 g_backdoor_spi\.g_addr_shift_in\.o_Q\[4\]
*1760 g_backdoor_spi\.g_addr_shift_in\.o_Q\[5\]
*1761 g_backdoor_spi\.g_addr_shift_in\.o_Q\[6\]
*1762 g_backdoor_spi\.g_addr_shift_in\.o_Q\[7\]
*1763 g_backdoor_spi\.g_addr_shift_in\.o_Q\[8\]
*1764 g_backdoor_spi\.g_data_shift_in\.o_Q\[0\]
*1765 g_backdoor_spi\.g_data_shift_in\.o_Q\[10\]
*1766 g_backdoor_spi\.g_data_shift_in\.o_Q\[11\]
*1767 g_backdoor_spi\.g_data_shift_in\.o_Q\[12\]
*1768 g_backdoor_spi\.g_data_shift_in\.o_Q\[13\]
*1769 g_backdoor_spi\.g_data_shift_in\.o_Q\[14\]
*1770 g_backdoor_spi\.g_data_shift_in\.o_Q\[15\]
*1771 g_backdoor_spi\.g_data_shift_in\.o_Q\[16\]
*1772 g_backdoor_spi\.g_data_shift_in\.o_Q\[17\]
*1773 g_backdoor_spi\.g_data_shift_in\.o_Q\[18\]
*1774 g_backdoor_spi\.g_data_shift_in\.o_Q\[19\]
*1775 g_backdoor_spi\.g_data_shift_in\.o_Q\[1\]
*1776 g_backdoor_spi\.g_data_shift_in\.o_Q\[20\]
*1777 g_backdoor_spi\.g_data_shift_in\.o_Q\[21\]
*1778 g_backdoor_spi\.g_data_shift_in\.o_Q\[22\]
*1779 g_backdoor_spi\.g_data_shift_in\.o_Q\[23\]
*1780 g_backdoor_spi\.g_data_shift_in\.o_Q\[24\]
*1781 g_backdoor_spi\.g_data_shift_in\.o_Q\[25\]
*1782 g_backdoor_spi\.g_data_shift_in\.o_Q\[26\]
*1783 g_backdoor_spi\.g_data_shift_in\.o_Q\[27\]
*1784 g_backdoor_spi\.g_data_shift_in\.o_Q\[28\]
*1785 g_backdoor_spi\.g_data_shift_in\.o_Q\[29\]
*1786 g_backdoor_spi\.g_data_shift_in\.o_Q\[2\]
*1787 g_backdoor_spi\.g_data_shift_in\.o_Q\[30\]
*1788 g_backdoor_spi\.g_data_shift_in\.o_Q\[31\]
*1789 g_backdoor_spi\.g_data_shift_in\.o_Q\[32\]
*1790 g_backdoor_spi\.g_data_shift_in\.o_Q\[3\]
*1791 g_backdoor_spi\.g_data_shift_in\.o_Q\[4\]
*1792 g_backdoor_spi\.g_data_shift_in\.o_Q\[5\]
*1793 g_backdoor_spi\.g_data_shift_in\.o_Q\[6\]
*1794 g_backdoor_spi\.g_data_shift_in\.o_Q\[7\]
*1795 g_backdoor_spi\.g_data_shift_in\.o_Q\[8\]
*1796 g_backdoor_spi\.g_data_shift_in\.o_Q\[9\]
*1797 g_backdoor_spi\.g_data_shift_out\.i_START
*1798 g_backdoor_spi\.g_data_shift_out\.s_CNT\[0\]
*1799 g_backdoor_spi\.g_data_shift_out\.s_CNT\[1\]
*1800 g_backdoor_spi\.g_data_shift_out\.s_CNT\[2\]
*1801 g_backdoor_spi\.g_data_shift_out\.s_CNT\[3\]
*1802 g_backdoor_spi\.g_data_shift_out\.s_CNT\[4\]
*1803 g_backdoor_spi\.g_data_shift_out\.s_CNT\[5\]
*1804 g_backdoor_spi\.g_data_shift_out\.s_CNT\[6\]
*1805 g_backdoor_spi\.g_data_shift_out\.s_CNT\[7\]
*1806 g_backdoor_spi\.g_data_shift_out\.s_DATA\[0\]
*1807 g_backdoor_spi\.g_data_shift_out\.s_DATA\[10\]
*1808 g_backdoor_spi\.g_data_shift_out\.s_DATA\[11\]
*1809 g_backdoor_spi\.g_data_shift_out\.s_DATA\[12\]
*1810 g_backdoor_spi\.g_data_shift_out\.s_DATA\[13\]
*1811 g_backdoor_spi\.g_data_shift_out\.s_DATA\[14\]
*1812 g_backdoor_spi\.g_data_shift_out\.s_DATA\[15\]
*1813 g_backdoor_spi\.g_data_shift_out\.s_DATA\[16\]
*1814 g_backdoor_spi\.g_data_shift_out\.s_DATA\[17\]
*1815 g_backdoor_spi\.g_data_shift_out\.s_DATA\[18\]
*1816 g_backdoor_spi\.g_data_shift_out\.s_DATA\[19\]
*1817 g_backdoor_spi\.g_data_shift_out\.s_DATA\[1\]
*1818 g_backdoor_spi\.g_data_shift_out\.s_DATA\[20\]
*1819 g_backdoor_spi\.g_data_shift_out\.s_DATA\[21\]
*1820 g_backdoor_spi\.g_data_shift_out\.s_DATA\[22\]
*1821 g_backdoor_spi\.g_data_shift_out\.s_DATA\[23\]
*1822 g_backdoor_spi\.g_data_shift_out\.s_DATA\[24\]
*1823 g_backdoor_spi\.g_data_shift_out\.s_DATA\[25\]
*1824 g_backdoor_spi\.g_data_shift_out\.s_DATA\[26\]
*1825 g_backdoor_spi\.g_data_shift_out\.s_DATA\[27\]
*1826 g_backdoor_spi\.g_data_shift_out\.s_DATA\[28\]
*1827 g_backdoor_spi\.g_data_shift_out\.s_DATA\[29\]
*1828 g_backdoor_spi\.g_data_shift_out\.s_DATA\[2\]
*1829 g_backdoor_spi\.g_data_shift_out\.s_DATA\[30\]
*1830 g_backdoor_spi\.g_data_shift_out\.s_DATA\[3\]